Questionable use of curly braces in ".model sir870adp vdmos(rg=3 vto=2.9 rd=3.2m rs=1.5m rb={m} kp=100 mtriode=1.85 cgdmax=1.4n cgdmin=70p cgs=2.9n cjo=3.6n m=.4 a=.7 vj=.7 lambda=20m is=3p ksubthres=.08 mfg=siliconix vds=100 ron=5.5m qg=53.5n)"
    Error: undefined symbol in: "[m]"
Circuit: * C:\metal_detecturd\MEAT_HAW_SPICE\SMPS\metal_SMPS_400v_limiter_n_regulated_307_max_tester_dual_fet.asc

Direct Newton iteration for .op point succeeded.
Heightened Def Con from 9.35161e-005 to 9.35161e-005

Date: Tue Feb 21 22:06:53 2017
Total elapsed time: 10.755 seconds.

tnom = 27
temp = 27
method = modified trap
totiter = 190295
traniter = 190273
tranpoints = 65541
accept = 48980
rejected = 16562
matrix size = 196
fillins = 100
solver = Alternate
Thread vector: 61.4/31.3[8] 15.3/5.3[8] 6.5/2.7[8] 2.0/2.0[1]  2592/500
Matrix Compiler1: 14.60 KB object code size  6.5/4.7/[2.3]
Matrix Compiler2: 18.17 KB object code size  3.9/5.2/[1.7]


